#DATABASE C:\Program Files (x86)\USGS\Phreeqc Interactive 3.1.7-9213\database\Amm.dat
SOLUTION_MASTER_SPECIES
    Doc         Doc          0     C      12   

SOLUTION_SPECIES
12H+ + 2NO3- + 10e- = N2 + 6H2O
    log_k     -207.08             # removes N2(aq) from calculations
Doc = Doc
    log_k     0

RATES
    Organic_decomposition
-start     
10 k = 0.005 / (3600 * 24)   # 1/s
12 k_tmp = 0.07              # degree C^-1
15 T_C = TC
20 o2_half = 1.5e-5          # mol/kgw
30 o2_monod = TOT("O(0)")/(TOT("O(0)") + o2_half)       #acceptor
60 rate = k * EXP(k_tmp * T_C) * TOT("Doc") * o2_monod * TOT("Doc") / (TOT("Doc") + 1e-7)
70 moles = rate * TIME * TOT("water")
80 SAVE moles
#90 print moles, TOT("Amm"), k, TIME
-end

    Nitrification
-start     
10 k = 0.8 / (3600 * 24) # 1/s
12 k_tmp = 0.07          # degree C^-1
15 T_C = TC
20 o2_half = 1.25e-4        # mol/kgw
30 o2_monod = TOT("O(0)")/(TOT("O(0)") + o2_half)
40 amm_half = 2e-7 # mol/kgw
50 amm_monod = TOT("Amm")/(TOT("Amm") + amm_half)
60 rate = k * EXP(k_tmp * T_C) * TOT("Amm") * o2_monod * amm_monod
70 moles = rate * TIME * TOT("water")
80 SAVE moles
#90 print moles, TOT("Amm"), k, TIME
-end

    Denitrification
-start
10 k = 0.3 / (3600 * 24)     # 1/s
12 k_tmp = 0.07              # degree C^-1
15 T_C = TC
20 o2_half = 6.25e-5         # mol/kgw
30 o2_inhib = TOT("O(0)")/(TOT("O(0)") + o2_half)
50 N_monod = TOT("N(5)")/(TOT("N(5)") + 1e-7)
60 rate = k * EXP(k_tmp * T_C) * TOT("N(5)") * (1 - o2_inhib) * N_monod
70 SAVE rate * TIME
-end

KINETICS  1
Organic_decomposition
    -formula  CH20(Amm)0.2  1 Doc  -1
    -m        10
    -m0       10
    -tol      1e-008

Nitrification
    -formula  Amm  -1 NH3  1
    -m        10
    -m0       10
    -tol      1e-008

Denitrification
    -formula N -2 Ntg 1 CH2O +2.5
    -m        10
    -m0       10
    -tol      1e-008
#-cvode
-step_divide 1
-runge_kutta 3
-bad_step_max 500
 END

KINETICS 2-15
Organic_decomposition
    -formula  CH20(Amm)0.5  1 Doc  -1
    -m        10
    -m0       10
    -tol      1e-008

Nitrification
    -formula  Amm  -1 NH3  1
    -m        10
    -m0       10
    -tol      1e-008

Denitrification
    -formula N -2 Ntg 1 CH2O +2.5
    -m        10
    -m0       10
    -tol      1e-008
#-cvode
-step_divide 1
-runge_kutta 3
-bad_step_max 500
END

SOLUTION 0
    temp      25
    pH        7
    pe        4
    redox     pe
    units     mmol/kgw
    density   1
    O(0)      0.5 O2(g)      -0.7
    Doc       0.25
    -water    1 # kg
SOLUTION 1-15
    temp      25
    pH        7
    pe        4
    redox     pe
    units     mmol/kgw
    density   1
    O(0)      0.5 O2(g)      -0.7
    N(5)      1e-1
    -water    1 # kg
END

#SELECTED_OUTPUT
#	-reset false
#	-totals Amm N(5) N Ntg Doc   #!
#	-molalities O2               #!
#USER_PUNCH
#-heading O2_mgL DOC_mgL              #!
#10 PUNCH 1000*16*TOT("O(0)")         #! simpler
#20 PUNCH 1000*12*TOT("Doc")          #!
#END

#USER_GRAPH
# -axis_scale sy  -0 15
# -headings Distance Amm Nitrate Dissolved_N2 DOC DO  #!
# -initial_solutions
# -axis_scale sy_axis  0  10
# -connect_simulations false
# -plot_concentration_vs X
# -axis_titles "Depth" "mol/kgw" "DO, mg/kgw"
# -start
# 10 graph_x dist
# 20 graph_y TOT("Amm")
# 40 graph_y TOT("N(5)")
# 50 graph_y TOT("Ntg")                             #!
# 60 graph_y TOT("Doc")                             #!
# 70 graph_sy 1000*16*TOT("O(0)")                   #!
#
# -end

END
PRINT
-reset false




